LTspice 26.0.1 for Windows
Circuit: C:\Users\prakh\OneDrive\Pictures\Screenshots\LOW power\Q1\PartC_Parallel_RCA.cir
Start Time: Fri Apr 24 23:56:51 2026
Options:TEMP=27 cshunt=1f
Ignoring BSIM parameter XL
Ignoring BSIM parameter XW
Ignoring BSIM parameter XL
Ignoring BSIM parameter XW
solver = Normal
Maximum thread count: 8
tnom = 27
temp = 27
method = trap
Compress1stOrder = true
Compress2ndOrder = true
Warning: Pd = 0 is less than W.
Warning: Ps = 0 is less than W.
Warning: Pd = 0 is less than W.
Warning: Ps = 0 is less than W.
Direct Newton iteration succeeded in finding operating point.
Total elapsed time: 4.661 seconds.

Files loaded:
C:\Users\prakh\OneDrive\Pictures\Screenshots\LOW power\Q1\PartC_Parallel_RCA.cir
C:\Users\prakh\OneDrive\Pictures\Screenshots\LOW power\Q1\FA1bit.sub
C:\Users\prakh\OneDrive\Pictures\Screenshots\LOW power\Q1\180nm_bulk.lib

partc_avgpwr: AVG((-I(VDD)*V(VDD)) )=0.000631555106111 FROM 1e-08 TO 4e-07
t_delay_u0=1.73492175406e-10 FROM 5.00000019526e-11 TO 2.23492177359e-10
