LTspice 26.0.1 for Windows
Circuit: C:\Users\prakh\OneDrive\Pictures\Screenshots\LOW power\Q1\PartB_Pipelined_RCA.cir
Start Time: Fri Apr 24 23:56:46 2026
Options:TEMP=27 cshunt=1f
Ignoring BSIM parameter XL
Ignoring BSIM parameter XW
Ignoring BSIM parameter XL
Ignoring BSIM parameter XW
solver = Normal
Maximum thread count: 8
tnom = 27
temp = 27
method = trap
Compress1stOrder = true
Compress2ndOrder = true
Warning: Pd = 0 is less than W.
Warning: Ps = 0 is less than W.
Warning: Pd = 0 is less than W.
Warning: Ps = 0 is less than W.
Direct Newton iteration succeeded in finding operating point.
