LTspice 26.0.1 for Windows
Circuit: C:\Users\prakh\OneDrive\Desktop\LOW project\Q2\LC.net
Start Time: Tue Apr  7 16:17:13 2026
solver = Normal
Maximum thread count: 8
tnom = 27
temp = 27
method = trap
Compress1stOrder = true
Compress2ndOrder = true
Instance "M1": Length shorter than recommended for a level 1 MOSFET.
Instance "M1": Width narrower than recommended for a level 1 MOSFET.
Instance "M2": Length shorter than recommended for a level 1 MOSFET.
Instance "M2": Width narrower than recommended for a level 1 MOSFET.
Instance "M8": Length shorter than recommended for a level 1 MOSFET.
Instance "M8": Width narrower than recommended for a level 1 MOSFET.
Instance "M9": Length shorter than recommended for a level 1 MOSFET.
Instance "M9": Width narrower than recommended for a level 1 MOSFET.
Instance "M10": Length shorter than recommended for a level 1 MOSFET.
Instance "M10": Width narrower than recommended for a level 1 MOSFET.
Instance "M3": Length shorter than recommended for a level 1 MOSFET.
Instance "M3": Width narrower than recommended for a level 1 MOSFET.
Instance "M4": Length shorter than recommended for a level 1 MOSFET.
Instance "M4": Width narrower than recommended for a level 1 MOSFET.
Instance "M5": Length shorter than recommended for a level 1 MOSFET.
Instance "M5": Width narrower than recommended for a level 1 MOSFET.
Instance "M6": Length shorter than recommended for a level 1 MOSFET.
Instance "M6": Width narrower than recommended for a level 1 MOSFET.
Instance "M7": Length shorter than recommended for a level 1 MOSFET.
Instance "M7": Width narrower than recommended for a level 1 MOSFET.
Direct Newton iteration failed to find operating point.
Starting Gmin stepping
Gmin stepping succeeded in finding the operating point.

Changing Tseed to 4.88281e-14
Changing Tseed to 4.88281e-16
Warning: Simulation tolerance relaxed to achieve convergence from 1.0000000143115236e-07 to 1.0000000143164063e-07 seconds.
Warning: Simulation tolerance relaxed to achieve convergence from 1.0000000143164063e-07 to 1.0000000143212891e-07 seconds.
Warning: Simulation tolerance relaxed to achieve convergence from 1.0000000143212891e-07 to 1.0000000143261718e-07 seconds.
Warning: Simulation tolerance relaxed to achieve convergence from 1.0000000143261718e-07 to 1.0000000143310545e-07 seconds.
Warning: Simulation tolerance relaxed to achieve convergence from 1.0000000143310545e-07 to 1.0000000143359373e-07 seconds.
Warning: Simulation tolerance relaxed to achieve convergence from 1.0000000143359373e-07 to 1.0000000143408200e-07 seconds.
Warning: Simulation tolerance relaxed to achieve convergence from 1.0000000143408200e-07 to 1.0000000143457028e-07 seconds.
Warning: Simulation tolerance relaxed to achieve convergence from 1.0000000143457028e-07 to 1.0000000143505855e-07 seconds.
Warning: Simulation tolerance relaxed to achieve convergence from 1.0000000143505855e-07 to 1.0000000143554683e-07 seconds.
Warning: Simulation tolerance relaxed to achieve convergence from 1.0000000143554683e-07 to 1.0000000143603510e-07 seconds.
Warning: Simulation tolerance relaxed to achieve convergence from 1.0000000143603510e-07 to 1.0000000143652338e-07 seconds.
Warning: Simulation tolerance relaxed to achieve convergence from 1.0000000143652338e-07 to 1.0000000143701165e-07 seconds.
Warning: Simulation tolerance relaxed to achieve convergence from 1.0000000143701165e-07 to 1.0000000143749993e-07 seconds.
Warning: Simulation tolerance relaxed to achieve convergence from 1.0000000143749993e-07 to 1.0000000143798820e-07 seconds.
Warning: Simulation tolerance relaxed to achieve convergence from 1.0000000143798820e-07 to 1.0000000143847648e-07 seconds.
Warning: Simulation tolerance relaxed to achieve convergence from 1.0000000143847648e-07 to 1.0000000143896475e-07 seconds.
Warning: Simulation tolerance relaxed to achieve convergence from 1.0000000143896475e-07 to 1.0000000143945303e-07 seconds.
Warning: Simulation tolerance relaxed to achieve convergence from 2.0000000065087895e-07 to 2.0000000065136724e-07 seconds.
Warning: Simulation tolerance relaxed to achieve convergence from 3.0000000143115236e-07 to 3.0000000143164062e-07 seconds.
Warning: Simulation tolerance relaxed to achieve convergence from 3.0000000143164062e-07 to 3.0000000143212888e-07 seconds.
Warning: Simulation tolerance relaxed to achieve convergence from 3.0000000143212888e-07 to 3.0000000143261714e-07 seconds.
Warning: Simulation tolerance relaxed to achieve convergence from 3.0000000143261714e-07 to 3.0000000143310541e-07 seconds.
Warning: Simulation tolerance relaxed to achieve convergence from 3.0000000143310541e-07 to 3.0000000143359367e-07 seconds.
Warning: Simulation tolerance relaxed to achieve convergence from 3.0000000143359367e-07 to 3.0000000143408193e-07 seconds.
Warning: Simulation tolerance relaxed to achieve convergence from 3.0000000143408193e-07 to 3.0000000143457019e-07 seconds.
Warning: Simulation tolerance relaxed to achieve convergence from 3.0000000143457019e-07 to 3.0000000143505845e-07 seconds.
Warning: Simulation tolerance relaxed to achieve convergence from 3.0000000143505845e-07 to 3.0000000143554671e-07 seconds.
Warning: Simulation tolerance relaxed to achieve convergence from 3.0000000143554671e-07 to 3.0000000143603498e-07 seconds.
Warning: Simulation tolerance relaxed to achieve convergence from 3.0000000143603498e-07 to 3.0000000143652324e-07 seconds.
Warning: Simulation tolerance relaxed to achieve convergence from 3.0000000143652324e-07 to 3.0000000143701150e-07 seconds.
Warning: Simulation tolerance relaxed to achieve convergence from 3.0000000143701150e-07 to 3.0000000143749976e-07 seconds.
Warning: Simulation tolerance relaxed to achieve convergence from 3.0000000143749976e-07 to 3.0000000143798802e-07 seconds.
Warning: Simulation tolerance relaxed to achieve convergence from 3.0000000143798802e-07 to 3.0000000143847628e-07 seconds.
Warning: Simulation tolerance relaxed to achieve convergence from 3.0000000143847628e-07 to 3.0000000143896454e-07 seconds.
Warning: Simulation tolerance relaxed to achieve convergence from 3.0000000143896454e-07 to 3.0000000143945281e-07 seconds.
Warning: Simulation tolerance relaxed to achieve convergence from 4.0000000065087889e-07 to 4.0000000065136715e-07 seconds.
Total elapsed time: 0.896 seconds.

Files loaded:
C:\Users\prakh\OneDrive\Desktop\LOW project\Q2\LC.net
C:\Users\prakh\AppData\Local\LTspice\lib\cmp\standard.mos

iavg: AVG(I(VddH))=-5.40000333733e-07 FROM 0 TO 5e-07
