LTspice 26.0.1 for Windows
Circuit: C:\Users\prakh\OneDrive\Desktop\LOW project\Q2\NoLC.net
Start Time: Tue Apr  7 16:20:39 2026
solver = Normal
Maximum thread count: 8
tnom = 27
temp = 27
method = trap
Compress1stOrder = true
Compress2ndOrder = true
Instance "M4": Length shorter than recommended for a level 1 MOSFET.
Instance "M4": Width narrower than recommended for a level 1 MOSFET.
Instance "M1": Length shorter than recommended for a level 1 MOSFET.
Instance "M1": Width narrower than recommended for a level 1 MOSFET.
Instance "M2": Length shorter than recommended for a level 1 MOSFET.
Instance "M2": Width narrower than recommended for a level 1 MOSFET.
Direct Newton iteration succeeded in finding operating point.
Changing Tseed to 4.88281e-14
Changing Tseed to 4.88281e-16
Total elapsed time: 0.261 seconds.

Files loaded:
C:\Users\prakh\OneDrive\Desktop\LOW project\Q2\NoLC.net
C:\Users\prakh\AppData\Local\LTspice\lib\cmp\standard.mos

iavg: AVG(I(VddH))=-2.2264424146e-05 FROM 0 TO 5e-07
