LTspice 26.0.1 for Windows
Circuit: C:\Users\prakh\OneDrive\Desktop\LOW project\6T SRAM.net
Start Time: Fri Apr  3 20:59:30 2026
solver = Normal
Maximum thread count: 8
tnom = 27
temp = 27
method = trap
Compress1stOrder = true
Compress2ndOrder = true
Instance "M1": Length shorter than recommended for a level 1 MOSFET.
Instance "M1": Width narrower than recommended for a level 1 MOSFET.
Instance "M2": Length shorter than recommended for a level 1 MOSFET.
Instance "M2": Width narrower than recommended for a level 1 MOSFET.
Instance "M5": Length shorter than recommended for a level 1 MOSFET.
Instance "M5": Width narrower than recommended for a level 1 MOSFET.
Instance "M6": Length shorter than recommended for a level 1 MOSFET.
Instance "M6": Width narrower than recommended for a level 1 MOSFET.
Instance "M3": Length shorter than recommended for a level 1 MOSFET.
Instance "M3": Width narrower than recommended for a level 1 MOSFET.
Instance "M4": Length shorter than recommended for a level 1 MOSFET.
Instance "M4": Width narrower than recommended for a level 1 MOSFET.
Direct Newton iteration succeeded in finding operating point.
Warning: Simulation tolerance relaxed to achieve convergence from 7.3205102245530735e-10 to 7.3205102250413552e-10 seconds.
Total elapsed time: 0.175 seconds.

Files loaded:
C:\Users\prakh\OneDrive\Desktop\LOW project\6T SRAM.net
C:\Users\prakh\AppData\Local\LTspice\lib\cmp\standard.mos

iavg: AVG(I(V1))=-9.69105759863e-07 FROM 0 TO 5e-08
